GEOS-Chem Start Instruction After 13.0.0 Version
CONTRIBUTED By Bai Bin
Contact Info: baib@mail.sustech.edu.cn
Update Time: 2021/02/01
More Info at http://wiki.seas.harvard.edu/geos-chem/index.php/Getting_Started_with_GEOS-Chem

1. download SPACK in main directory
git clone https://github.com/spack/spack.git

2. load SPACK
export SPACK_ROOT=/storage/coda1/p-pliu40/0/shared/GEOS-Chem/spack
source $SPACK_ROOT/share/spack/setup-env.sh
# or just
# source /storage/coda1/p-pliu40/0/shared/GEOS-Chem/spack/share/spack/setup-env.sh

3. download Packages Using 'spack install'
module load intel/19.0.5
time spack install netcdf-fortran %intel@19.0.5.281
time spack install flex %intel@19.0.5.281
time spack install cmake %intel@19.0.5.281
time spack install gmake %intel@19.0.5.281
time spack install ncview %intel@19.0.5.281
spack load texinfo  #this is essential
time spack install cgbd %intel@19.0.5.281
# see also https://github.com/geoschem/geos-chem-cloud/issues/35


####################################################################
# if you are in pengfei’s group in Gatech, just start from here!!###
####################################################################

4. download Source Code in your GEOS-Chem directory ('GC' for me)
cd GC
git clone https://github.com/geoschem/GCClassic.git GCClassic.13.0.0
# And you will see output similar to this.
# Cloning into 'GCClassic'...
# remote: Enumerating objects: 34, done.
# remote: Counting objects: 100% (34/34), done.
# remote: Compressing objects: 100% (25/25), done.
# remote: Total 737 (delta 12), reused 31 (delta 9), pack-reused 703
# Receiving objects: 100% (737/737), 138.79 KiB | 1.46 MiB/s, done.
# Resolving deltas: 100% (383/383), done.

5 get GEOS-Chem and HEMCO as sub-modules
cd GCClassic
git submodule update --init --recursive
# may add 'alias gsu="git submodule update --init --recursive"' in ~/.bashrc for convenience
 
6. copy run directory
cd run/
./createRunDir.sh
# need to type ExtData dir for first time:
# /storage/coda1/p-pliu40/0/shared/GEOS-Chem/data/ExtData
# and finish your options

7. set GEOS-Chem task
# come to the directory you just created, here I show my setting
cd {home}/GC/rundirs/gc_4x5_fullchem/
vi input.geos # change run time and others
vi HEMCO.Config.rc # shut-down several offline emissions
vi HISTORY.rc #choose preferred output

8. build run environment
# do below in your run directory, here i.e. {home}/GC/rundirs/gc_4x5_fullchem/
cd build
source /storage/coda1/p-pliu40/0/shared/GEOS-Chem/.bashrc 
# (copy it to your own dir so just source ~/.bashrc)
source /storage/coda1/p-pliu40/0/shared/GEOS-Chem/.GC 
# (copy it to your own dir so just source ~/.GC)
cmake . -DOMP=n -DRUNDIR=../ ../CodeDir
make -j
make install

9. submit task
# ./gcclassic to run a modeling
qsub xxx.pbs
# see template in /storage/coda1/p-pliu40/0/shared/GEOS-Chem/.templategc13.pbs
# copy it to your own run dir and modify


10. check your task state
qstat -u <username>
# for me, it’s qstat -u bbai32

11. other useful commands
qdel <job id> #kill task
pace-check-queue -c inferno  #check nodes state
pace-check-queue -s inferno  #check nodes property
checkjob <job id>
